66

N         -2.76414        1.97626       -1.76907
C         -3.69607       -0.92542        1.58675
H         -3.29851       -0.52385        2.53576
N         -2.67343       -1.71274        0.91575
H         -2.98695       -2.67921        0.78671
C         -4.86080       -1.90384        1.94829
O         -5.81860       -1.39761        2.57946
C         -1.55229       -1.26034        0.34638
O         -1.22643       -0.02955        0.51136
C         -2.46192        2.84299       -0.80863
C         -3.44886        3.87964       -0.36124
H         -4.27113        4.02806       -1.07022
H         -3.87073        3.58058        0.61175
C         -0.75130       -2.19531       -0.41036
H         -0.95572       -3.25715       -0.27190
C          0.19495       -1.82106       -1.34118
C          1.03047       -2.88719       -2.01346
H          1.02708       -2.72790       -3.10239
H          0.62238       -3.89124       -1.82104
C          2.50797       -2.90700       -1.59618
O          3.34165       -3.48635       -2.30605
N          2.81577       -2.29089       -0.44169
H          2.09877       -1.89827        0.16885
C          4.05241       -1.63390        1.56619
O          5.14173       -1.48283        2.17105
C          2.24722        2.37496       -1.32724
N          2.38203        1.83675       -0.12062
C          3.59470        1.63464        0.68930
H          3.82581        2.56402        1.23528
H          3.27315        0.87679        1.41310
C          3.36192        3.13433       -1.98237
H          3.95566        2.46408       -2.62318
H          2.91062        3.90505       -2.62145
C          4.84249        1.13907       -0.06125
H          5.35097        1.99515       -0.52603
H          5.52209        0.77340        0.72435
C          4.62557        0.03714       -1.12455
H          3.56097       -0.01390       -1.40669
H          5.15666        0.34384       -2.03971
C          5.10691       -1.37693       -0.76720
H          5.25184       -1.93897       -1.70174
H          6.07969       -1.33417       -0.25284
C          4.15448       -2.20008        0.12056
H          4.58279       -3.21555        0.20121
C         -5.12966        1.11681       -1.47965
H         -5.53728        1.87728       -0.79213
H         -5.96462        0.83494       -2.14257
C         -4.07535        1.75972       -2.39314
H         -4.44596        2.71580       -2.79207
H         -3.85666        1.10785       -3.24818
C         -4.65423       -0.10420       -0.66822
H         -3.82956       -0.60593       -1.20099
H         -5.47450       -0.83928       -0.60769
C         -4.21094        0.26159        0.75312
H         -3.43332        1.03418        0.71626
H         -5.06696        0.67663        1.30829
O         -4.73243       -3.10147        1.56488
O          2.89168       -1.37239        1.99629
O          0.46615       -0.60218       -1.71384
Fe        -0.22981        1.07537       -0.87223
O         -1.79858        1.07579       -2.11563
O         -1.30981        2.77427       -0.26374
O          1.12039        2.25487       -1.92372
O          1.26551        1.26465        0.41330
H          4.03053        3.61016       -1.25447
H         -2.91134        4.82794       -0.21783
