70

N         -2.39390        2.45848       -0.91162
C         -4.39960       -2.32147       -0.05277
H         -4.91701       -2.86649        0.75938
N         -2.96799       -2.32093        0.22059
H         -2.45518       -2.86312       -0.47573
C         -4.63201       -3.12761       -1.36924
O         -5.82152       -3.19610       -1.76632
C         -2.38887       -1.92336        1.37043
O         -3.01695       -1.34209        2.27148
C         -1.96360        3.45913       -0.15915
C         -2.66584        4.78836       -0.13542
H         -2.81682        5.18683       -1.14928
H         -3.65177        4.70287        0.34841
H         -2.05099        5.49138        0.43990
C         -0.91721       -2.28007        1.52989
H         -0.56350       -2.92725        0.71800
H         -0.83782       -2.83914        2.47560
C          0.04003       -1.06856        1.61166
C         -0.40601       -0.11080        2.73982
C          1.48087       -1.53119        1.95385
H          1.45014       -2.22205        2.81003
H          2.06115       -0.64675        2.24987
C          2.16825       -2.21917        0.78515
O          1.70755       -3.23017        0.22785
N          3.31970       -1.64021        0.39559
H          3.75639       -0.90771        0.95218
C          5.59799       -1.50428       -0.47685
O          6.46342       -1.85111       -1.31416
N          2.35824        2.08305       -0.78688
C          2.70864        2.09961        0.49911
C          4.15496        2.27368        0.88321
H          4.19034        2.66951        1.90704
H          4.68322        1.30458        0.86094
H          4.68697        2.96181        0.21153
C          3.27036        2.05529       -1.93276
H          2.64673        2.31059       -2.80026
H          4.02212        2.85001       -1.81416
C          3.95378        0.69709       -2.10696
H          4.62931        0.75213       -2.97935
H          4.59346        0.52853       -1.23103
C          2.96808       -0.46503       -2.25409
H          2.16709       -0.33965       -1.50970
H          2.48074       -0.41066       -3.24414
C          3.58979       -1.85494       -2.07559
H          2.80972       -2.60838       -2.26981
H          4.40233       -2.02747       -2.79980
C          4.17897       -2.12157       -0.66982
H          4.29771       -3.21503       -0.57011
C         -4.66778        1.46615       -1.00328
H         -4.68280        1.71141        0.07382
H         -5.66791        1.72079       -1.39453
C         -3.64129        2.39449       -1.67002
H         -4.03629        3.41358       -1.75479
H         -3.39085        2.04043       -2.68350
C         -4.37662       -0.02984       -1.19234
H         -3.29031       -0.16847       -1.14315
H         -4.70045       -0.34831       -2.19952
C         -5.02000       -0.91594       -0.12677
H         -4.90049       -0.44013        0.85885
H         -6.09881       -1.04414       -0.30888
O         -3.61031       -3.63764       -1.91088
O          5.75290       -0.71957        0.50732
O          0.03976       -0.39207        0.37392
Fe        -0.16309        1.42446        0.46303
O         -0.72713        1.08283        2.32410
O         -1.69839        1.28701       -0.83965
O         -0.92706        3.27071        0.57812
O          1.03998        1.90569       -1.09569
O         -0.39741       -0.45806        3.92261
O          1.81142        1.96287        1.38894
