70

C         -1.27076        1.82361       -1.78942
C         -4.12990       -1.99640       -0.01272
H         -4.79748       -2.74978        0.43900
N         -2.82171       -2.07284        0.61482
H         -2.06232       -2.15584       -0.05873
C         -3.95487       -2.32146       -1.52665
O         -5.01766       -2.48516       -2.17488
C         -2.55906       -2.01238        1.93341
O         -3.43869       -1.82912        2.79349
N         -1.97539        2.46702       -0.86127
C         -1.10529       -2.25345        2.30912
H         -0.71936       -3.11445        1.74272
H         -1.08450       -2.49594        3.37876
C         -0.13409       -1.07473        2.06731
C         -0.34920        0.07375        3.09754
C          1.32008       -1.58734        2.35641
H          1.31473       -2.16745        3.28982
H          1.97032       -0.71229        2.49606
C          1.90307       -2.46734        1.25519
O          1.74260       -3.70257        1.23806
N          2.60737       -1.77908        0.34193
H          2.59333       -0.75923        0.43899
C          4.94755       -2.00811       -0.50633
O          5.70924       -2.40395       -1.42841
C          2.36050        3.03907       -0.30722
N          2.88757        1.81887       -0.20311
C          4.05752        1.24590       -0.87016
H          4.46739        0.49873       -0.17639
H          4.80706        2.04101       -0.98615
C          3.07803        4.10768       -1.08449
H          2.69666        5.08553       -0.76370
H          4.16643        4.07392       -0.94229
C          3.75153        0.63210       -2.24960
H          3.49715        1.46607       -2.92571
H          4.69673        0.20285       -2.62623
C          2.61530       -0.40974       -2.33845
H          1.79385       -0.10028       -1.67901
H          2.20568       -0.34338       -3.36156
C          2.93944       -1.89741       -2.11175
H          2.01648       -2.46005       -2.33919
H          3.70767       -2.23134       -2.82666
C          3.42912       -2.32841       -0.71547
H          3.33678       -3.42405       -0.65375
C         -4.27989        1.89957       -0.19917
H         -4.12367        2.01390        0.88533
H         -5.32836        2.17362       -0.40794
C         -1.73466        1.70122       -3.21195
H         -2.39564        2.51409       -3.53358
H         -0.84639        1.67456       -3.85762
C         -3.98659        0.45916       -0.60643
H         -2.91983        0.26320       -0.41959
H         -4.14450        0.34233       -1.69258
C         -4.78293       -0.60713        0.14093
H         -4.83362       -0.36497        1.21409
H         -5.81550       -0.66746       -0.23953
O         -2.76997       -2.34660       -1.97006
O          5.28180       -1.39950        0.54652
O         -0.24834       -0.55962        0.77604
Fe         0.17892        1.32178        0.61805
O         -0.13150        1.26595        2.61119
O         -0.17634        1.26720       -1.44408
O         -1.51039        2.40228        0.42019
O          1.23687        3.26153        0.24172
O         -0.63055       -0.15591        4.27617
O          2.13764        0.91875        0.49824
H         -2.26883        0.74303       -3.32588
H          2.87009        3.98829       -2.16047
C         -3.37243        2.88660       -0.94751
H         -3.44484        3.89714       -0.51745
H         -3.64939        2.94401       -2.00683
