96

C          3.01760       -1.80480       -0.44488
C          4.28920       -2.34656       -0.24834
C          5.29821       -2.22038       -1.23677
C          4.98670       -1.61458       -2.46160
C          3.72652       -1.04103       -2.67160
C          2.75390       -1.06413       -1.65690
H          4.48651       -2.85686        0.69875
O          1.59861       -0.43605       -1.71935
C          6.73793       -2.44416       -0.95249
O          7.59597       -2.56128       -1.84300
N          7.08479       -2.41020        0.37841
H          6.34026       -2.12195        1.00522
C          8.41464       -1.98762        0.80351
H          8.74203       -2.60239        1.65788
H          9.09861       -2.18351       -0.03412
C          8.42033       -0.50113        1.19303
H          9.40680       -0.25476        1.62114
H          7.68886       -0.35369        2.00748
C          8.08581        0.47203        0.02740
H          7.80105       -0.10382       -0.86700
H          8.99988        1.02531       -0.24531
N          7.02568        1.45660        0.26352
H          7.22872        1.95977        1.13153
C          4.62821        1.98001        0.59461
H          3.65181        1.50173        0.77404
H          4.88517        2.50882        1.53140
C          5.67705        0.89131        0.35558
H          5.58251        0.12678        1.15619
H          5.46760        0.35874       -0.58702
C          4.50202        2.99791       -0.54866
H          4.16486        3.97001       -0.15973
H          5.49769        3.15974       -0.99476
C          3.52624        2.58674       -1.66177
H          3.77272        1.58587       -2.04065
H          3.61838        3.29880       -2.49952
N          2.13319        2.54346       -1.22436
H          1.64770        1.64390       -1.20374
C          1.45871        3.66203       -0.87933
O          1.95405        4.79652       -0.98078
C          0.04034        3.48742       -0.35035
H         -0.65739        3.54208       -1.20303
H         -0.14770        4.36261        0.28577
C         -1.58074        2.31364        1.21140
H         -1.74523        1.35756        1.73311
H         -1.49754        3.11529        1.95605
C         -2.77739        2.61748        0.32044
O         -3.49107        3.61691        0.48699
N         -2.97282        1.70431       -0.66534
C         -3.82756        1.97305       -1.81813
H         -2.13883        1.11504       -0.80961
C         -5.23694        1.37512       -1.74757
H         -3.31147        1.56012       -2.69900
H         -3.90118        3.06574       -1.95347
C         -6.15338        2.00448       -0.69456
H         -5.69724        1.52479       -2.74321
H         -5.17164        0.28451       -1.60099
C         -7.63528        1.64479       -0.89763
H         -6.05850        3.10326       -0.74635
H         -5.82038        1.72159        0.31931
H         -8.25472        2.26520       -0.22595
H         -7.91627        1.92612       -1.92972
C         -5.77651       -2.36563       -0.41132
C         -4.42929       -2.18083        0.17731
O         -6.03716       -2.03266       -1.58604
C         -4.24598       -1.98850        1.55650
C         -3.31520       -2.06820       -0.69178
C         -2.98017       -1.67529        2.06893
C         -2.04226       -1.77073       -0.20264
C         -1.87141       -1.54456        1.21524
H         -2.84424       -1.48781        3.13793
O         -0.95494       -1.63701       -0.95075
C         -0.24922        2.17371        0.41038
O         -0.33383        1.10886       -0.48796
C          0.87975        1.91472        1.44763
O          1.39813        0.73648        1.40429
O          1.21299        2.81794        2.23388
H          3.50234       -0.51046       -3.60145
O          2.02283       -1.87810        0.42862
H         -3.46320       -2.19285       -1.76674
O         -0.66714       -1.19196        1.61460
Fe         0.50047       -0.60700        0.03132
N         -8.03238        0.24934       -0.69302
H         -7.43077       -0.36025       -1.25391
N         -6.73862       -2.90724        0.39524
H         -6.47078       -3.13110        1.34713
C         -8.15819       -2.69621        0.14985
H         -8.27618       -2.54233       -0.93066
H         -8.71162       -3.60905        0.41989
C         -8.71398       -1.49830        0.93542
H         -9.77435       -1.36584        0.65851
H         -8.68390       -1.73272        2.01437
C         -7.96056       -0.18564        0.70274
H         -8.43022        0.59791        1.32192
H         -6.92058       -0.29094        1.07640
H          5.77222       -1.52227       -3.21316
H         -5.09612       -2.02062        2.24094
