92

C          2.44057       -1.98146        0.44566
C          3.71246       -2.55558        0.61393
C          4.74945       -2.27602       -0.28424
C          4.53655       -1.41988       -1.37767
C          3.25181       -0.85907       -1.57203
C          2.20627       -1.11507       -0.68445
H          3.88161       -3.21741        1.46782
O          0.98700       -0.59465       -0.78621
C          5.60904       -1.01478       -2.32677
O          5.35895       -0.38474       -3.36988
N          6.89401       -1.33930       -1.98584
H          7.05424       -1.70258       -1.05354
C          8.05028       -0.75901       -2.65373
H          8.79370       -1.54949       -2.84799
H          7.69633       -0.38050       -3.62209
C          8.68682        0.36801       -1.82886
H          9.58597        0.72088       -2.36152
H          9.04282       -0.05253       -0.87258
C          7.72676        1.55475       -1.54017
H          6.73971        1.34175       -1.98144
H          8.10098        2.45812       -2.04848
N          7.50978        1.90888       -0.13469
H          8.40351        2.18524        0.27899
C          6.42781        1.40575        2.02337
H          6.22288        0.56991        2.71521
H          7.23793        1.99848        2.48232
C          6.92701        0.84620        0.68681
H          7.62568        0.00501        0.87794
H          6.07977        0.41741        0.12896
C          5.17122        2.27198        1.86697
H          5.05129        2.95112        2.72728
H          5.30313        2.90412        0.97118
C          3.91133        1.42239        1.72113
H          3.68030        0.91934        2.67217
H          4.06162        0.62314        0.97283
N          2.76682        2.24183        1.33755
H          2.96354        3.06588        0.77816
C          1.50863        1.73268        1.26356
O          1.28463        0.60785        1.81863
C          0.51073        2.51355        0.57749
H          0.78796        3.50091        0.20716
C         -1.79621        2.93164       -0.32999
H         -2.61816        3.11102        0.38661
H         -1.37139        3.90328       -0.60943
C         -2.43422        2.33550       -1.59296
O         -2.63995        3.04503       -2.58624
N         -2.77702        1.03094       -1.51513
C         -3.32015        0.28336       -2.64008
H         -2.45447        0.53151       -0.68231
C         -4.83311        0.04892       -2.57360
H         -2.80442       -0.68942       -2.67027
H         -3.06526        0.83441       -3.55786
C         -5.68621        1.31631       -2.58739
H         -5.10331       -0.58149       -3.44187
H         -5.07064       -0.54755       -1.67898
C         -7.19257        1.02344       -2.70464
H         -5.39254        1.95537       -3.43943
H         -5.48755        1.90928       -1.67742
H         -7.73393        1.98207       -2.80114
H         -7.36911        0.46852       -3.64389
C         -6.36151       -1.92662        0.72649
C         -5.00067       -1.90286        1.32101
O         -6.55971       -2.29902       -0.44693
C         -4.74672       -1.69416        2.68796
C         -3.90862       -2.00496        0.42947
C         -3.43507       -1.53512        3.15382
C         -2.59975       -1.81635        0.86619
C         -2.34634       -1.55118        2.26141
H         -3.24208       -1.35871        4.21570
O         -1.54085       -1.81304        0.05888
C         -0.77239        2.04623        0.36117
O         -1.20485        0.87578        0.70284
H          3.09124       -0.19058       -2.41964
O          1.42400       -2.17586        1.26650
H         -4.10069       -2.17476       -0.62971
O         -1.09304       -1.30925        2.60254
Fe        -0.03406       -0.82940        0.93582
N         -7.82467        0.26507       -1.62284
H         -7.38165       -0.65348       -1.53342
N         -7.38833       -1.47848        1.50910
H         -7.13514       -1.00335        2.36859
C         -8.68866       -1.13861        0.94802
H         -8.80794       -1.73006        0.03099
H         -9.47530       -1.44769        1.65449
C         -8.83078        0.36017        0.64305
H         -9.83451        0.52406        0.21372
H         -8.78493        0.92639        1.59050
C         -7.77744        0.92301       -0.31659
H         -7.98722        1.99574       -0.46864
H         -6.77677        0.87232        0.16285
H         -5.56541       -1.65864        3.41049
H          5.71913       -2.75133       -0.12227
