92

C          2.98493       -1.40887       -2.00805
C          4.20311       -1.11900       -2.62567
C          5.39798       -1.77218       -2.22993
C          5.33585       -2.76883       -1.24353
C          4.12839       -3.07050       -0.60381
C          2.94966       -2.38207       -0.94034
H          4.19740       -0.36272       -3.41576
O          1.83547       -0.81465       -2.30508
C          6.75012       -1.33652       -2.66982
O          7.77473       -1.99309       -2.42759
N          6.82457       -0.11208       -3.29930
H          5.95835        0.41752       -3.29760
C          7.81774        1.71326       -1.96047
H          6.96338        2.37575       -2.18950
H          8.71044        2.35852       -1.88238
C          7.53639        1.02678       -0.62286
H          8.45178        0.50175       -0.26888
H          6.77225        0.24799       -0.76820
N          6.98893        1.95396        0.36459
H          7.68074        2.68160        0.56249
C          5.88078        2.22223        2.56401
H          5.76167        1.71972        3.54026
H          6.50016        3.11700        2.75311
C          6.64365        1.28846        1.62159
H          7.53579        0.88107        2.14593
H          6.01590        0.41579        1.36957
C          4.50976        2.65972        2.03658
H          4.13017        3.48754        2.66121
H          4.62057        3.04764        1.01116
C          3.47259        1.53348        2.03916
H          3.75682        0.72746        1.35007
N          2.17275        2.02835        1.61505
H          1.87085        2.92320        1.98503
C          1.29163        1.34622        0.83730
O          1.62984        0.19965        0.39770
C          0.02444        1.97094        0.57300
H         -0.25928        2.83326        1.17849
C         -2.25897        2.12314       -0.40495
H         -2.82064        1.59731        0.38548
H         -2.22134        3.18741       -0.13481
C         -2.99656        2.00074       -1.72759
O         -2.88939        2.85945       -2.61217
N         -3.78976        0.90913       -1.84108
C         -4.68442        0.66981       -2.96361
H         -3.79308        0.22913       -1.08511
C         -6.14817        0.62242       -2.51249
H         -4.41096       -0.28088       -3.44880
H         -4.51373        1.48500       -3.68046
C         -6.64815        1.94178       -1.91840
H         -6.77470        0.33549       -3.37583
H         -6.25624       -0.18649       -1.77242
C         -7.96307        1.80768       -1.12995
H         -6.78834        2.68598       -2.72286
H         -5.87344        2.35487       -1.25147
H         -8.29453        2.81795       -0.82698
H         -8.74816        1.40533       -1.79465
C         -5.84833       -1.77331        0.55259
C         -4.42205       -2.48122       -1.33413
O         -6.88197       -1.91388       -0.13640
C         -4.49679       -1.98733       -0.02250
C         -3.19462       -2.58537       -1.99434
C         -3.29487       -1.64057        0.65105
C         -2.00437       -2.19174       -1.35802
C         -2.05362       -1.76125        0.02149
H         -3.29614       -1.23867        1.66714
O         -0.82493       -2.16898       -1.94401
C         -0.85052        1.52724       -0.40691
O         -0.60640        0.62144       -1.28852
H          4.09039       -3.81561        0.19611
O          1.79016       -2.55177       -0.33328
H         -3.14554       -2.92876       -3.03133
O         -0.89344       -1.45332        0.58859
Fe         0.49020       -1.09542       -0.84195
N         -7.93246        0.96483        0.06958
H         -7.76963       -0.00815       -0.20318
N         -5.92828       -1.38997        1.85794
H         -5.06510       -1.22153        2.36035
C         -7.14218       -0.82207        2.42567
H         -7.98216       -1.21304        1.83766
H         -7.25739       -1.18444        3.45890
C         -7.14368        0.71511        2.41440
H         -8.11672        1.05646        2.80847
H         -6.36450        1.08046        3.10681
C         -6.90314        1.34418        1.03941
H         -6.92814        2.44202        1.15108
H         -5.87568        1.09293        0.70208
H         -5.35022       -2.74519       -1.84060
H          6.26164       -3.26101       -0.94340
H          3.40841        1.09212        3.05286
C          8.01057        0.72422       -3.12178
H          8.21895        1.27548       -4.05199
H          8.85481        0.04790       -2.93205
