96

C          2.62234       -2.41222        0.88478
C          3.69635       -3.19312        1.35207
C          4.92629       -3.20116        0.67834
C          5.09087       -2.46625       -0.50547
C          3.99672       -1.73782       -1.02679
C          2.78835       -1.65756       -0.33506
H          3.56037       -3.77465        2.26880
H          5.75249       -3.79451        1.07760
O          1.76294       -0.89926       -0.70792
C          6.40574       -2.28254       -1.17359
O          6.51443       -2.00841       -2.38111
N          7.49427       -2.36457       -0.34940
H          7.30374       -2.38409        0.64624
C          8.82322       -1.91786       -0.73533
H          9.56425       -2.61094       -0.30432
H          8.88889       -1.99527       -1.82955
C          9.13564       -0.48413       -0.27815
H         10.21861       -0.32428       -0.41916
H          8.95556       -0.40662        0.80968
C          8.35042        0.64349       -1.01082
H          7.79575        0.20971       -1.85834
H          9.08284        1.34677       -1.44145
N          7.40221        1.43921       -0.22880
H          7.86890        1.79214        0.60988
C          5.12493        1.73780        0.69742
H          4.26398        1.16937        1.09019
H          5.56053        2.27581        1.55851
C          6.16839        0.75411        0.15503
H          6.32394       -0.06101        0.89082
H          5.77006        0.27425       -0.75028
C          4.65148        2.74007       -0.36359
H          4.27715        3.66447        0.09989
H          5.52422        3.02180       -0.97546
C          3.55056        2.20502       -1.29294
H          3.77124        1.17466       -1.60378
H          3.51220        2.83188       -2.19950
N          2.22452        2.19396       -0.68116
H          1.72957        1.30518       -0.56751
C          1.54822        3.35061       -0.49819
O          2.03953        4.45548       -0.78212
C          0.13592        3.27782        0.06465
H         -0.55460        3.42151       -0.78424
H          0.03087        4.15561        0.71710
C         -1.67898        2.20936        1.46509
H         -1.94292        1.26942        1.97336
H         -1.64006        3.01941        2.20487
C         -2.75255        2.55453        0.44260
O         -3.43665        3.58518        0.51815
N         -2.87203        1.64309       -0.55739
C         -3.54285        1.95189       -1.81711
H         -2.06453        1.00336       -0.59103
C         -4.97185        1.41950       -1.96459
H         -2.92121        1.52225       -2.61864
H         -3.54792        3.04750       -1.94829
C         -6.01227        2.10465       -1.07366
H         -5.25955        1.58242       -3.02088
H         -4.98267        0.32862       -1.80773
C         -7.46112        1.83482       -1.51943
H         -5.84694        3.19618       -1.10555
H         -5.87159        1.80786       -0.02037
H         -8.13814        2.51345       -0.97103
H         -7.54675        2.10654       -2.58780
C         -5.95860       -2.22700       -0.65023
C         -4.71602       -2.05600        0.13787
O         -6.01066       -1.96069       -1.86895
C         -4.74828       -1.73776        1.50552
C         -3.47076       -2.08698       -0.53687
C         -3.56515       -1.43414        2.19130
H         -5.69845       -1.66362        2.03894
C         -2.27682       -1.81060        0.13079
C         -2.32488       -1.44837        1.53037
H         -3.59292       -1.14605        3.24615
O         -1.07594       -1.82082       -0.43445
C         -0.27340        1.99647        0.81496
O         -0.29888        0.90699       -0.05948
C          0.72703        1.73422        1.97868
O          1.16928        0.52551        2.05679
O          1.03170        2.65967        2.74931
H          4.13160       -1.15988       -1.94323
O          1.45895       -2.30586        1.49450
H         -3.44832       -2.31310       -1.60539
O         -1.18376       -1.12103        2.09930
Fe         0.28949       -0.83070        0.69689
N         -7.98786        0.47627       -1.36096
H         -7.34355       -0.19035       -1.79509
N         -7.06207       -2.67655        0.01908
H         -6.96029       -2.85044        1.01293
C         -8.41148       -2.43093       -0.46929
H         -8.33916       -2.32138       -1.55934
H         -9.03890       -3.31212       -0.26284
C         -9.04135       -1.18145        0.16472
H        -10.02606       -1.01556       -0.30570
H         -9.21873       -1.37359        1.23776
C         -8.19434        0.08661        0.03553
H         -8.72923        0.91231        0.53571
H         -7.24680       -0.05003        0.59574
