96

C          2.63949       -2.35303        0.12133
C          3.66297       -3.16548        0.64518
C          4.99171       -3.01172        0.22399
C          5.31772       -2.07335       -0.76707
C          4.28816       -1.30214       -1.35449
C          2.97201       -1.38706       -0.89959
H          3.40386       -3.90635        1.40742
O          1.98315       -0.60854       -1.32445
C          6.71650       -1.72652       -1.13071
O          7.02313       -1.22519       -2.22600
N          7.64348       -1.93115       -0.14453
H          7.27596       -2.14314        0.77660
C          8.97781       -1.35064       -0.17288
H          9.68599       -2.08162        0.25079
H          9.24550       -1.19699       -1.22756
C          9.07549       -0.02974        0.60585
H         10.14764        0.20114        0.72932
H          8.67703       -0.18451        1.62498
C          8.35804        1.18875       -0.04669
H          7.99266        0.90332       -1.04633
H          9.10414        1.98624       -0.19902
N          7.23172        1.78550        0.67365
H          7.51728        1.99676        1.63272
C          4.81018        1.78580        1.20322
H          3.94222        1.10999        1.30231
H          5.03316        2.15484        2.22062
C          6.01172        0.97928        0.69779
H          6.11083        0.04968        1.29473
H          5.81605        0.65668       -0.33470
C          4.45844        2.96380        0.28664
H          3.92425        3.75044        0.83903
H          5.40223        3.41038       -0.06710
C          3.60348        2.58937       -0.93477
H          3.94976        1.64421       -1.37512
H          3.70762        3.37764       -1.69924
N          2.18615        2.42322       -0.62730
H          1.73894        1.51674       -0.78832
C          1.40960        3.49854       -0.36294
O          1.87297        4.65085       -0.31737
C         -0.07632        3.27237       -0.12904
H         -0.60603        3.55013       -1.05378
H         -0.37180        4.00471        0.63440
C         -2.02777        1.85591        0.69649
H         -2.26888        0.83614        1.02799
H         -2.17074        2.55494        1.53254
C         -2.94068        2.28374       -0.43353
O         -3.13711        3.48071       -0.70063
N         -3.50601        1.27658       -1.14281
C         -4.33311        1.49117       -2.32141
H         -3.27015        0.32114       -0.88767
C         -5.82792        1.27281       -2.06526
H         -3.98962        0.80216       -3.10903
H         -4.15007        2.52247       -2.65608
C         -6.42610        2.23170       -1.03608
H         -6.36019        1.38330       -3.02827
H         -5.98743        0.23116       -1.74662
C         -7.88644        1.90811       -0.67569
H         -6.37475        3.26754       -1.41654
H         -5.81105        2.21235       -0.12114
H         -8.27221        2.70536       -0.01415
H         -8.50051        1.93613       -1.59324
C         -6.17176       -2.19182       -0.48080
C         -4.33498       -2.27688       -2.13852
O         -7.04193       -2.01269       -1.35958
C         -4.72426       -2.16192       -0.79660
C         -2.98999       -2.16147       -2.50774
C         -3.73146       -1.91845        0.18831
C         -1.99382       -1.90288       -1.54558
C         -2.38319       -1.78237       -0.15589
H         -3.99613       -1.76551        1.23806
O         -0.72107       -1.72913       -1.82302
C         -0.51917        1.85466        0.27811
O         -0.30559        0.95754       -0.76357
C          0.26730        1.41732        1.55235
O          0.76977        0.23064        1.49861
O          0.35664        2.18855        2.52207
H          4.54554       -0.56757       -2.12006
O          1.38178       -2.39862        0.50920
H         -2.69113       -2.24427       -3.55684
O         -1.42190       -1.49710        0.70877
Fe         0.27029       -0.85258       -0.24377
N         -8.13858        0.62191       -0.01742
H         -7.90151       -0.13946       -0.65919
N         -6.52469       -2.40453        0.81965
H         -5.78237       -2.51631        1.50045
C         -7.85278       -2.09455        1.32715
H         -8.53027       -2.09861        0.46365
H         -8.17640       -2.89422        2.01195
C         -7.90959       -0.73913        2.04978
H         -8.95883       -0.55115        2.33666
H         -7.32144       -0.80242        2.98238
C         -7.38477        0.43769        1.22418
H         -7.48934        1.35964        1.82219
H         -6.29624        0.30315        1.05612
H         -5.10472       -2.44252       -2.89338
H          5.76844       -3.64033        0.66619
