92

C          3.33669       -1.26113       -1.73572
C          4.65268       -1.60489       -1.43488
C          5.71389       -1.30667       -2.32470
C          5.41861       -0.67058       -3.54106
C          4.10171       -0.32941       -3.87150
C          3.04388       -0.58609       -2.97630
H          4.83502       -2.04368       -0.45243
O          1.79018       -0.22263       -3.17016
C          7.13135       -1.47518       -1.91304
O          8.06014       -0.84393       -2.44153
N          7.36429       -2.34498       -0.87068
H          6.53913       -2.81280       -0.51209
C          8.36369       -2.05261        0.15526
H          8.81020       -2.99515        0.50827
H          9.16009       -1.46193       -0.32058
C          7.72419       -1.29176        1.32743
H          8.41794       -1.28549        2.18655
H          6.82685       -1.84904        1.64925
C          7.33445        0.15268        0.96564
H          6.92388        0.18102       -0.05558
H          8.25053        0.76964        0.94885
N          6.34743        0.79716        1.83175
H          6.59832        0.64505        2.81170
C          3.97230        1.23433        2.38303
H          2.95067        0.86680        2.18395
H          4.14584        1.10125        3.46606
C          4.96703        0.36056        1.61005
H          4.79102       -0.70464        1.87072
H          4.76833        0.43699        0.52799
C          4.07123        2.72473        2.03616
H          3.54281        3.32736        2.79473
H          5.13257        3.01719        2.07089
C          3.51871        3.09198        0.65305
H          3.84531        2.36708       -0.10442
H          3.90686        4.07985        0.35473
N          2.06356        3.15086        0.60329
H          1.62444        3.98697        0.97225
C          1.26608        2.30197       -0.09919
O          1.78888        1.27438       -0.63964
C         -0.13101        2.62455       -0.17634
H         -0.50715        3.44260        0.43993
C         -2.49678        2.30536       -0.87528
H         -2.85860        1.77478        0.02089
H         -2.62520        3.38246       -0.69859
C         -3.33479        1.92350       -2.08248
O         -3.43494        2.66813       -3.06546
N         -3.96594        0.73079       -1.98170
C         -4.89751        0.21245       -2.97151
H         -3.80637        0.16411       -1.15263
C         -6.28685        0.00285       -2.36100
H         -4.51121       -0.74004       -3.36845
H         -4.92391        0.94182       -3.79336
C         -6.95555        1.31046       -1.92947
H         -6.92201       -0.52819       -3.09173
H         -6.18021       -0.67244       -1.49570
C         -8.10295        1.12209       -0.92333
H         -7.34163        1.84321       -2.81672
H         -6.19657        1.97374       -1.48180
H         -8.58313        2.10326       -0.75254
H         -8.87518        0.46720       -1.36452
C         -5.15768       -1.69805        1.00924
C         -3.90338       -2.52369       -0.95110
O         -6.23367       -2.11430        0.52843
C         -3.87311       -1.84647        0.27784
C         -2.77835       -2.56373       -1.77990
C         -2.65323       -1.25461        0.70444
C         -1.58864       -1.91648       -1.40248
C         -1.50947       -1.30166       -0.09535
H         -2.56951       -0.71551        1.65166
O         -0.52644       -1.80711       -2.17278
C         -1.01245        1.96675       -1.02003
O         -0.70691        1.05818       -1.88166
H          3.87794        0.17782       -4.81454
O          2.31341       -1.47393       -0.91559
H         -2.82416       -3.05013       -2.75816
O         -0.34104       -0.76332        0.23444
Fe         0.72786       -0.39078       -1.44054
N         -7.74819        0.55986        0.38432
H         -7.45103       -0.41295        0.26919
N         -5.13211       -1.06130        2.21425
H         -4.25372       -0.66052        2.52036
C         -6.33970       -0.55733        2.85319
H         -7.17393       -1.17259        2.49307
H         -6.25511       -0.70799        3.94079
C         -6.60192        0.92854        2.55942
H         -7.54959        1.20611        3.05272
H         -5.80267        1.53369        3.02310
C         -6.67726        1.28330        1.07263
H         -6.88371        2.36413        0.98403
H         -5.68033        1.12334        0.61227
H         -4.84140       -2.98025       -1.26615
H          6.24032       -0.42025       -4.21446
